src/oplem/Data/networks/eulv_reduced/Lines2.txt
New Line.LINE1 Bus1=1 Bus2=15 phases=3 Linecode=4c_70 Length=16.646841 Units=m
New Line.LINE3 Bus1=15 Bus2=25 phases=3 Linecode=4c_70 Length=5.2165 Units=m
New Line.LINE4 Bus1=25 Bus2=27 phases=3 Linecode=2c_16 Length=5.9049 Units=m
New Line.LINE5 Bus1=25 Bus2=32 phases=3 Linecode=4c_70 Length=12.6224 Units=m
New Line.LINE6 Bus1=27 Bus2=34 phases=3 Linecode=2c_16 Length=5.3513 Units=m
New Line.LINE7 Bus1=27 Bus2=70 phases=3 Linecode=2c_16 Length=6.747143 Units=m
New Line.LINE8 Bus1=32 Bus2=36 phases=3 Linecode=2c_16 Length=5.7265 Units=m
New Line.LINE9 Bus1=32 Bus2=37 phases=3 Linecode=4c_70 Length=8.0244 Units=m
New Line.LINE10 Bus1=36 Bus2=83 phases=3 Linecode=2c_16 Length=6.44409 Units=m
New Line.LINE11 Bus1=36 Bus2=47 phases=3 Linecode=2c_16 Length=6.1526 Units=m
New Line.LINE12 Bus1=37 Bus2=59 phases=3 Linecode=4c_70 Length=13.13098 Units=m
New Line.LINE13 Bus1=37 Bus2=169 phases=3 Linecode=4c_185 Length=38.351033 Units=m
New Line.LINE16 Bus1=59 Bus2=101 phases=3 Linecode=4c_70 Length=13.37622 Units=m
New Line.LINE17 Bus1=59 Bus2=66 phases=3 Linecode=2c_16 Length=8.2583 Units=m
New Line.LINE18 Bus1=66 Bus2=73 phases=3 Linecode=2c_16 Length=4.0366 Units=m
New Line.LINE19 Bus1=66 Bus2=74 phases=3 Linecode=2c_16 Length=4.0366 Units=m
New Line.LINE20 Bus1=101 Bus2=155 phases=3 Linecode=4c_.35 Length=14.67517 Units=m
New Line.LINE21 Bus1=101 Bus2=114 phases=3 Linecode=4c_70 Length=8.79792 Units=m
New Line.LINE22 Bus1=114 Bus2=127 phases=3 Linecode=4c_.35 Length=4.17271 Units=m
New Line.LINE23 Bus1=114 Bus2=247 phases=3 Linecode=4c_.1 Length=28.18684 Units=m
New Line.LINE26 Bus1=127 Bus2=289 phases=3 Linecode=2c_16 Length=14.34716 Units=m
New Line.LINE27 Bus1=127 Bus2=145 phases=3 Linecode=4c_.35 Length=16.0946 Units=m
New Line.LINE28 Bus1=145 Bus2=166 phases=3 Linecode=4c_.35 Length=16.3325 Units=m
New Line.LINE29 Bus1=145 Bus2=261 phases=3 Linecode=2c_16 Length=11.18521 Units=m
New Line.LINE30 Bus1=155 Bus2=178 phases=3 Linecode=2c_16 Length=18.5373 Units=m
New Line.LINE31 Bus1=155 Bus2=171 phases=3 Linecode=4c_.35 Length=12.3 Units=m
New Line.LINE33 Bus1=166 Bus2=283 phases=3 Linecode=2c_16 Length=10.40682 Units=m
New Line.LINE34 Bus1=171 Bus2=196 phases=3 Linecode=4c_.35 Length=14.1361 Units=m
New Line.LINE35 Bus1=171 Bus2=188 phases=3 Linecode=2c_16 Length=12.4482 Units=m
New Line.LINE38 Bus1=188 Bus2=208 phases=3 Linecode=2c_16 Length=6.9136 Units=m
New Line.LINE39 Bus1=188 Bus2=264 phases=3 Linecode=2c_16 Length=8.2381 Units=m
New Line.LINE40 Bus1=196 Bus2=225 phases=3 Linecode=2c_16 Length=18.4592 Units=m
New Line.LINE41 Bus1=196 Bus2=226 phases=3 Linecode=4c_.35 Length=7.3714 Units=m
New Line.LINE42 Bus1=226 Bus2=241 phases=3 Linecode=2c_16 Length=13.6223 Units=m
New Line.LINE44 Bus1=241 Bus2=248 phases=3 Linecode=2c_16 Length=5.3022 Units=m
New Line.LINE45 Bus1=241 Bus2=249 phases=3 Linecode=2c_16 Length=5.3022 Units=m
New Line.LINE46 Bus1=247 Bus2=387 phases=3 Linecode=2c_16 Length=14.523658 Units=m
New Line.LINE47 Bus1=247 Bus2=263 phases=3 Linecode=4c_.1 Length=4.06958 Units=m
New Line.LINE48 Bus1=261 Bus2=276 phases=3 Linecode=2c_16 Length=6.8846 Units=m
New Line.LINE49 Bus1=261 Bus2=314 phases=3 Linecode=2c_16 Length=4.80218 Units=m
New Line.LINE50 Bus1=263 Bus2=342 phases=3 Linecode=2c_16 Length=14.96775 Units=m
New Line.LINE51 Bus1=263 Bus2=280 phases=3 Linecode=4c_.1 Length=4.9913 Units=m
New Line.LINE52 Bus1=280 Bus2=310 phases=3 Linecode=4c_.06 Length=8.23019 Units=m
New Line.LINE53 Bus1=280 Bus2=373 phases=3 Linecode=4c_.1 Length=7.301714 Units=m
New Line.LINE54 Bus1=283 Bus2=320 phases=3 Linecode=2c_16 Length=7.11685 Units=m
New Line.LINE55 Bus1=283 Bus2=327 phases=3 Linecode=2c_16 Length=3.324801 Units=m
New Line.LINE56 Bus1=310 Bus2=336 phases=3 Linecode=2c_16 Length=7.69863 Units=m
New Line.LINE57 Bus1=310 Bus2=325 phases=3 Linecode=4c_.06 Length=10.6794 Units=m
New Line.LINE58 Bus1=325 Bus2=337 phases=3 Linecode=2c_16 Length=12.7504 Units=m
New Line.LINE59 Bus1=325 Bus2=332 phases=3 Linecode=4c_.06 Length=6.6729 Units=m
New Line.LINE60 Bus1=332 Bus2=406 phases=3 Linecode=2c_16 Length=15.785302 Units=m
New Line.LINE61 Bus1=332 Bus2=453 phases=3 Linecode=4c_.06 Length=37.66329 Units=m
New Line.LINE62 Bus1=336 Bus2=349 phases=3 Linecode=2c_16 Length=5.1973 Units=m
New Line.LINE63 Bus1=336 Bus2=388 phases=3 Linecode=2c_16 Length=8.52385 Units=m
New Line.LINE64 Bus1=373 Bus2=391 phases=3 Linecode=4c_.1 Length=7.37111 Units=m
New Line.LINE65 Bus1=373 Bus2=379 phases=3 Linecode=2c_16 Length=1.4115 Units=m
New Line.LINE66 Bus1=379 Bus2=458 phases=3 Linecode=2c_16 Length=19.82295 Units=m
New Line.LINE67 Bus1=379 Bus2=507 phases=3 Linecode=2c_16 Length=21.94227 Units=m
New Line.LINE68 Bus1=391 Bus2=530 phases=3 Linecode=2c_16 Length=10.680624 Units=m
New Line.LINE69 Bus1=391 Bus2=505 phases=3 Linecode=4c_.1 Length=26.2090 Units=m
New Line.LINE82 Bus1=453 Bus2=475 phases=3 Linecode=4c_.06 Length=13.5671 Units=m
New Line.LINE84 Bus1=453 Bus2=629 phases=3 Linecode=2c_16 Length=16.52655 Units=m
New Line.LINE90 Bus1=475 Bus2=508 phases=3 Linecode=4c_.06 Length=16.05858 Units=m
New Line.LINE92 Bus1=475 Bus2=484 phases=3 Linecode=2c_16 Length=10.2769 Units=m
New Line.LINE95 Bus1=484 Bus2=563 phases=3 Linecode=2c_16 Length=5.54817 Units=m
New Line.LINE96 Bus1=484 Bus2=502 phases=3 Linecode=2c_16 Length=6.6786 Units=m
New Line.LINE101 Bus1=505 Bus2=522 phases=3 Linecode=2c_16 Length=10.4722 Units=m
New Line.LINE102 Bus1=505 Bus2=578 phases=3 Linecode=4c_.1 Length=2.936771 Units=m
New Line.LINE103 Bus1=508 Bus2=559 phases=3 Linecode=4c_.06 Length=12.9491 Units=m
New Line.LINE105 Bus1=508 Bus2=544 phases=3 Linecode=2c_16 Length=10.65842 Units=m
New Line.LINE110 Bus1=530 Bus2=556 phases=3 Linecode=2c_16 Length=9.8006 Units=m
New Line.LINE111 Bus1=530 Bus2=539 phases=3 Linecode=2c_16 Length=5.5837 Units=m
New Line.LINE116 Bus1=544 Bus2=611 phases=3 Linecode=2c_16 Length=6.37701 Units=m
New Line.LINE117 Bus1=544 Bus2=562 phases=3 Linecode=2c_16 Length=6.6554 Units=m
New Line.LINE120 Bus1=559 Bus2=587 phases=3 Linecode=4c_.06 Length=7.30068 Units=m
New Line.LINE122 Bus1=559 Bus2=651 phases=3 Linecode=2c_16 Length=13.71347 Units=m
New Line.LINE128 Bus1=578 Bus2=785 phases=3 Linecode=2c_16 Length=15.715408 Units=m
New Line.LINE129 Bus1=578 Bus2=594 phases=3 Linecode=4c_.1 Length=4.77453 Units=m
New Line.LINE132 Bus1=587 Bus2=604 phases=3 Linecode=4c_.06 Length=10.2425 Units=m
New Line.LINE133 Bus1=587 Bus2=596 phases=3 Linecode=4c_.06 Length=0.64238 Units=m
New Line.LINE134 Bus1=594 Bus2=614 phases=3 Linecode=2c_16 Length=14.0043 Units=m
New Line.LINE135 Bus1=594 Bus2=615 phases=3 Linecode=4c_.1 Length=9.089 Units=m
New Line.LINE139 Bus1=596 Bus2=619 phases=3 Linecode=2c_16 Length=14.4096 Units=m
New Line.LINE140 Bus1=596 Bus2=608 phases=3 Linecode=2c_16 Length=11.6642 Units=m
New Line.LINE141 Bus1=604 Bus2=639 phases=3 Linecode=2c_.0225 Length=16.0515 Units=m
New Line.LINE144 Bus1=615 Bus2=688 phases=3 Linecode=2c_16 Length=13.76873 Units=m
New Line.LINE145 Bus1=615 Bus2=666 phases=3 Linecode=4c_.1 Length=2.70115 Units=m
New Line.LINE146 Bus1=651 Bus2=682 phases=3 Linecode=2c_16 Length=6.02494 Units=m
New Line.LINE147 Bus1=651 Bus2=676 phases=3 Linecode=2c_16 Length=5.34659 Units=m
New Line.LINE148 Bus1=666 Bus2=786 phases=3 Linecode=2c_16 Length=15.18983 Units=m
New Line.LINE149 Bus1=666 Bus2=686 phases=3 Linecode=4c_.1 Length=9.62961 Units=m
New Line.LINE150 Bus1=686 Bus2=690 phases=3 Linecode=2c_16 Length=8.1445 Units=m
New Line.LINE151 Bus1=686 Bus2=691 phases=3 Linecode=4c_.1 Length=10.5254 Units=m
New Line.LINE152 Bus1=690 Bus2=778 phases=3 Linecode=2c_16 Length=7.35786 Units=m
New Line.LINE153 Bus1=690 Bus2=701 phases=3 Linecode=2c_16 Length=6.4573 Units=m
New Line.LINE154 Bus1=691 Bus2=702 phases=3 Linecode=2c_16 Length=14.9747 Units=m
New Line.LINE155 Bus1=691 Bus2=697 phases=3 Linecode=4c_.1 Length=2.1907 Units=m
New Line.LINE156 Bus1=697 Bus2=707 phases=3 Linecode=4c_.06 Length=8.7308 Units=m
New Line.LINE159 Bus1=707 Bus2=718 phases=3 Linecode=4c_.06 Length=15.2459 Units=m
New Line.LINE160 Bus1=707 Bus2=891 phases=3 Linecode=2c_16 Length=12.748019 Units=m
New Line.LINE161 Bus1=718 Bus2=745 phases=3 Linecode=4c_.06 Length=17.0068 Units=m
New Line.LINE162 Bus1=718 Bus2=739 phases=3 Linecode=2c_16 Length=11.26017 Units=m
New Line.LINE163 Bus1=739 Bus2=755 phases=3 Linecode=2c_16 Length=6.7778 Units=m
New Line.LINE164 Bus1=739 Bus2=813 phases=3 Linecode=2c_16 Length=5.756153 Units=m
New Line.LINE165 Bus1=745 Bus2=794 phases=3 Linecode=4c_.06 Length=19.4603 Units=m
New Line.LINE166 Bus1=745 Bus2=763 phases=3 Linecode=2c_16 Length=10.8733 Units=m
New Line.LINE167 Bus1=763 Bus2=780 phases=3 Linecode=2c_16 Length=7.129 Units=m
New Line.LINE168 Bus1=763 Bus2=835 phases=3 Linecode=2c_16 Length=5.65812 Units=m
New Line.LINE169 Bus1=786 Bus2=854 phases=3 Linecode=2c_16 Length=2.29182 Units=m
New Line.LINE170 Bus1=786 Bus2=817 phases=3 Linecode=2c_16 Length=9.7761 Units=m
New Line.LINE171 Bus1=794 Bus2=884 phases=3 Linecode=2c_16 Length=10.77222 Units=m
New Line.LINE172 Bus1=794 Bus2=802 phases=3 Linecode=4c_95_SAC_XC Length=2.8031 Units=m
New Line.LINE173 Bus1=802 Bus2=839 phases=3 Linecode=4c_.06 Length=13.1431 Units=m
New Line.LINE183 Bus1=839 Bus2=868 phases=3 Linecode=2c_.0225 Length=10.12454 Units=m
New Line.LINE190 Bus1=854 Bus2=860 phases=3 Linecode=2c_16 Length=2.82 Units=m
New Line.LINE191 Bus1=854 Bus2=861 phases=3 Linecode=2c_16 Length=7.5091 Units=m
New Line.LINE196 Bus1=868 Bus2=899 phases=3 Linecode=2c_.0225 Length=9.33893 Units=m
New Line.LINE197 Bus1=868 Bus2=886 phases=3 Linecode=2c_.0225 Length=7.50839 Units=m
New Line.LINE202 Bus1=884 Bus2=906 phases=3 Linecode=2c_16 Length=8.09168 Units=m
New Line.LINE203 Bus1=884 Bus2=898 phases=3 Linecode=35_SAC_XSC Length=10.3363 Units=m
New Line.LINE204 Bus1=891 Bus2=900 phases=3 Linecode=2c_16 Length=9.6933 Units=m
New Line.LINE205 Bus1=891 Bus2=896 phases=3 Linecode=2c_16 Length=3.2587 Units=m
